output/compact_ny_2025/generation_reconstruction/S6_2025_LOW_TOTAL_EAST_PUBLIC/replay_audit_bus.csv
source_bus,bus_type,vm_pu,vmin_pu,vmax_pu,p_mismatch_mw,q_mismatch_mvar,voltage_below_min_pu,voltage_above_max_pu,violated,invalid_voltage_bounds
37,1,1.09629141435386,0.9,1.1,-2.30215846386272e-12,-4.50472992241657e-12,0,0,0,0
38,1,1.09999999669165,0.9,1.1,6.82121026329696e-13,3.33899574656016e-12,0,0,0,0
39,1,1.08563339629647,0.9,1.1,-1.47792889038101e-12,-1.19015908239817e-11,0,0,0,0
40,1,1.08198302280268,0.9,1.1,9.77561992484223e-14,-3.08711774333382e-12,0,0,0,0
41,1,1.06376404183546,0.9,1.1,1.08002495835535e-12,4.74642547487747e-12,0,0,0,0
42,3,1.0661564106014,0.9,1.1,-1.13686837721616e-13,-1.52056145452661e-12,0,0,0,0
43,1,1.09430540300932,0.9,1.1,-1.05160324892495e-12,3.47361028829596e-12,0,0,0,0
44,1,1.09274888038019,0.9,1.1,7.105427357601e-13,-1.241368119409e-12,0,0,0,0
45,1,1.08329920526477,0.9,1.1,-5.6843418860808e-14,-6.14619466432487e-13,0,0,0,0
46,1,1.09061469948044,0.9,1.1,2.52242671194836e-13,-3.73034936274053e-14,0,0,0,0
47,2,1.08426789292734,0.9,1.1,-2.27373675443232e-13,-9.80548975348938e-13,0,0,0,0
48,2,1.05734138454522,0.9,1.1,3.37507799486048e-13,3.69482222595252e-13,0,0,0,0
49,1,1.05170487087969,0.9,1.1,4.2632564145606e-14,2.06945571790129e-13,0,0,0,0
50,2,1.06805821589581,0.9,1.1,5.6843418860808e-13,4.43378667114303e-12,0,0,0,0
51,2,1.07089048056026,0.9,1.1,2.55795384873636e-13,2.71338507218388e-13,0,0,0,0
52,1,1.0674392983229,0.9,1.1,-6.19874497476476e-13,-2.97135647858842e-12,0,0,0,0
53,2,1.05702142164605,0.9,1.1,5.11590769747272e-13,5.96855898038484e-13,0,0,0,0
54,2,1.0701945525622,0.9,1.1,3.43902684107888e-12,-2.1316282072803e-12,0,0,0,0
55,2,1.06458327325293,0.9,1.1,-9.80548975348938e-13,-1.31805677483499e-12,0,0,0,0
56,2,1.07285605281534,0.9,1.1,-2.78532752417959e-12,-3.39639427693328e-12,0,0,0,0
57,2,1.06296987919569,0.9,1.1,-3.97903932025656e-13,-3.94795307556706e-13,0,0,0,0
58,1,1.06593459097832,0.9,1.1,-7.53175299905706e-13,-2.43005615629954e-12,0,0,0,0
59,1,1.06086994012776,0.9,1.1,7.38964445190504e-13,3.48165940522449e-12,0,0,0,0
60,2,1.07189355509543,0.9,1.1,-4.2632564145606e-14,3.92574861507455e-13,0,0,0,0
61,2,1.06543143410328,0.9,1.1,-2.27373675443232e-13,-1.75859327100625e-13,0,0,0,0
62,1,1.0692327274616,0.9,1.1,3.14636707605663e-13,7.06041050421674e-13,0,0,0,0
63,1,1.07275521787646,0.9,1.1,1.44041935863157e-13,3.60014286186092e-13,0,0,0,0
64,1,1.06530684651386,0.9,1.1,-3.83693077310454e-13,4.92050844513869e-13,0,0,0,0
65,2,1.05437693405397,0.9,1.1,2.32702745961433e-13,-1.81188397618826e-13,0,0,0,0
66,1,1.09293446552978,0.9,1.1,1.31450406115619e-13,7.58074159001865e-13,0,0,0,0
67,1,1.0876146669703,0.9,1.1,-4.2277292777726e-13,-2.59844229466566e-12,0,0,0,0
68,2,1.07756730549604,0.9,1.1,1.98951966012828e-13,1.84741111297626e-13,0,0,0,0
69,1,1.09667382601891,0.9,1.1,-1.53637499177695e-13,-3.11400270533411e-12,0,0,0,0
70,1,1.08426596773141,0.9,1.1,5.17604114363806e-14,3.82473787608343e-13,0,0,0,0
71,2,1.0763523861641,0.9,1.1,-1.13686837721616e-13,9.9475983006414e-14,0,0,0,0
72,2,1.07520123296896,0.9,1.1,-5.54223333892878e-13,1.54898316395702e-12,0,0,0,0
73,1,1.06407295930656,0.9,1.1,-5.6843418860808e-14,2.08046913030557e-11,0,0,0,0
74,1,1.04329216226457,0.9,1.1,8.5265128291212e-13,-1.74693592924768e-11,0,0,0,0
75,1,1.04132744155598,0.9,1.1,-7.7982065249671e-13,3.3729963266893e-12,0,0,0,0
76,1,1.04134300347705,0.9,1.1,1.33582034322899e-12,-7.39674987926264e-12,0,0,0,0
77,1,1.0421060478689,0.9,1.1,-1.85059848596985e-12,9.44642773743155e-12,0,0,0,0
78,2,1.03523417831279,0.9,1.1,4.01867428223568e-12,1.88151716429275e-11,0,0,0,0
79,2,1.03406307155926,0.9,1.1,1.70530256582424e-12,9.26547727431171e-12,0,0,0,0
80,2,1.03633642929626,0.9,1.1,-6.82121026329696e-13,7.92255150372512e-13,0,0,0,0
81,1,1.03309761926736,0.9,1.1,6.82121026329696e-13,5.79802872380242e-12,0,0,0,0
82,2,1.03403899780304,0.9,1.1,3.41060513164848e-13,-2.55795384873636e-12,0,0,0,0
9001,1,1.07605299824116,0.9,1.1,6.08782279452481e-13,4.54691623344983e-12,0,0,0,0
9002,1,1.0540809359537,0.9,1.1,4.05561740944806e-12,-7.21711831580094e-13,0,0,0,0
9003,1,1.03689238408874,0.9,1.1,5.11590769747272e-13,-1.28785870856518e-12,0,0,0,0
858,1,1.06025009079397,0.9,1.1,-5.94876488464996e-12,9.66852565818365e-13,0,0,0,0
774,1,1.0418014637095,0.9,1.1,-2.90167498868724e-12,5.89637244211643e-13,0,0,0,0
9101,1,1.09973463600011,0.9,1.1,1.03336481177909e-12,1.24597570739977e-11,0,0,0,0
9102,1,1.09972135594775,0.9,1.1,1.46559476880136e-13,-2.36445551100364e-12,0,0,0,0
9103,1,1.0933990839476,0.9,1.1,-6.92606536330526e-13,-3.06082018533903e-12,0,0,0,0
9104,1,1.07268005334096,0.9,1.1,7.54720348321632e-13,-1.06410526164166e-13,0,0,0,0
1220,1,1.09398365331311,0.9,1.1,-1.40626335904153e-13,-7.66037996454441e-13,0,0,0,0
1130,1,1.0346789166926,0.9,1.1,3.18327470954663e-13,-1.17643736701312e-11,0,0,0,0
557,1,1.03472224223838,0.9,1.1,-4.79986538807849e-12,-2.37912461360287e-11,0,0,0,0
1529,1,1.03577399124292,0.9,1.1,-4.76329943873494e-12,-1.10118193725843e-11,0,0,0,0
1493,1,1.03603596104269,0.9,1.1,-1.61303649334691e-11,-5.67591961508225e-11,0,0,0,0
601,1,1.03610934881696,0.9,1.1,1.31666463639255e-11,3.63144460005804e-11,0,0,0,0
1129,1,1.03423669565897,0.9,1.1,1.38638773468803e-12,-1.52817640948587e-11,0,0,0,0
9111,1,1.03639534520674,0.9,1.1,-1.02628262053921e-11,1.72391673364196e-11,0,0,0,0
9112,1,1.03637175792286,0.9,1.1,-2.01426316262159e-12,-2.36621704032871e-11,0,0,0,0
9113,1,1.03645669817386,0.9,1.1,8.1158952583183e-13,-1.66550416588163e-13,0,0,0,0
9114,1,1.03661278785,0.9,1.1,-7.21009513337275e-13,1.50540714697491e-13,0,0,0,0
